tests/data/short_circuit/three_phase_abc/sc_output_batch.json
[
  {
    "node":
      [
        {"id": 0, "u_pu": [0.8339083271798211, 0.833908327179821, 0.833908327179821], "u_angle": [0.01659615781831599, -2.07779894457488, 2.1109912602115113], "u": [72218.57957651104, 72218.57957651104, 72218.57957651104]},
        {"id": 1, "u_pu": [0.0, 0.0, 0.0], "u_angle": [0.0, 0.0, 0.0], "u": [0.0, 0.0, 0.0]},
        {"id": 2, "u_pu": [0.9704435987128411, 0.970443598712841, 0.9704435987128409], "u_angle": [-0.5299029914948589, -2.6242980938880547, 1.5644921108983365], "u": [5602.85872950208, 5602.85872950208, 5602.858729502079]},
        {"id": 3, "u_pu": [0.9704473303823548, 0.9704473303823548, 0.9704473303823546], "u_angle": [-0.5299042230039145, -2.6242993253971103, 1.5644908793892809], "u": [5602.880274306062, 5602.880274306062, 5602.880274306061]}
      ],
    "transformer":
      [
        {"id": 6, "i_from": [1481.406760543816, 1481.406760543816, 1481.4067605438158], "i_from_angle": [-1.5542001689765805, 2.63459003580981, 0.5401949334166146], "i_to": [19258.28788706961, 19258.287887069608, 19258.28788706961], "i_to_angle": [2.1109912602115113, 0.01659615781831547, -2.0777989445748797]}
      ],
    "line":
      [
        {"id": 7, "i_from": [34875.11674014596, 34875.11674014595, 34875.11674014595], "i_from_angle": [1.3508334152423649, -0.743561687150831, -2.8379567895440263], "i_to": [34874.58031811108, 34874.58031811108, 34874.58031811108], "i_to_angle": [-1.790754312254378, 2.3980358925320124, 0.3036407901388171]},
        {"id": 8, "i_from": [0.5632618773187452, 0.5632618773187452, 0.5632618773187452], "i_from_angle": [1.0408927195645348, -1.0535023828286612, 3.1352878219577303], "i_to": [1.467690763929347e-11, 1.467690763929347e-11, 1.467690763929347e-11], "i_to_angle": [-1.1071487177940904, 3.0816414869923, 0.9872463845991047]}
      ],
    "fault":
      [
        {"id": 10, "i": [53623.382809574345, 53623.382809574345, 53623.38280957434], "i_angle": [1.248979804773232, -0.845415297619964, -2.9398104000131595]}
      ],
    "shunt":
      [
        {"id": 9, "i": [0.0, 0.0, 0.0], "i_angle": [0.0, 0.0, 0.0]}
      ],
    "source":
      [
        {"id": 4, "i": [1283.885859137976, 1283.8858591379758, 1283.8858591379758], "i_angle": [1.5873924846132124, -0.5070026177799835, -2.601397720173179]},
        {"id": 5, "i": [34874.04389599704, 34874.04389599704, 34874.04389599704], "i_angle": [1.3508432675989517, -0.7435518347942442, -2.8379469371874397]}
      ]
  }
,
  {
    "node":
      [
        {"id": 0, "u_pu": [0.8339083271798211, 0.833908327179821, 0.833908327179821], "u_angle": [0.01659615781831599, -2.07779894457488, 2.1109912602115113], "u": [72218.57957651104, 72218.57957651104, 72218.57957651104]},
        {"id": 1, "u_pu": [0.0, 0.0, 0.0], "u_angle": [0.0, 0.0, 0.0], "u": [0.0, 0.0, 0.0]},
        {"id": 2, "u_pu": [0.9704435987128411, 0.970443598712841, 0.9704435987128409], "u_angle": [-0.5299029914948589, -2.6242980938880547, 1.5644921108983365], "u": [5602.85872950208, 5602.85872950208, 5602.858729502079]},
        {"id": 3, "u_pu": [0.9704473303823548, 0.9704473303823548, 0.9704473303823546], "u_angle": [-0.5299042230039145, -2.6242993253971103, 1.5644908793892809], "u": [5602.880274306062, 5602.880274306062, 5602.880274306061]}
      ],
    "transformer":
      [
        {"id": 6, "i_from": [1481.406760543816, 1481.406760543816, 1481.4067605438158], "i_from_angle": [-1.5542001689765805, 2.63459003580981, 0.5401949334166146], "i_to": [19258.28788706961, 19258.287887069608, 19258.28788706961], "i_to_angle": [2.1109912602115113, 0.01659615781831547, -2.0777989445748797]}
      ],
    "line":
      [
        {"id": 7, "i_from": [34875.11674014596, 34875.11674014595, 34875.11674014595], "i_from_angle": [1.3508334152423649, -0.743561687150831, -2.8379567895440263], "i_to": [34874.58031811108, 34874.58031811108, 34874.58031811108], "i_to_angle": [-1.790754312254378, 2.3980358925320124, 0.3036407901388171]},
        {"id": 8, "i_from": [0.5632618773187452, 0.5632618773187452, 0.5632618773187452], "i_from_angle": [1.0408927195645348, -1.0535023828286612, 3.1352878219577303], "i_to": [1.467690763929347e-11, 1.467690763929347e-11, 1.467690763929347e-11], "i_to_angle": [-1.1071487177940904, 3.0816414869923, 0.9872463845991047]}
      ],
    "fault":
      [
        {"id": 10, "i": [53623.382809574345, 53623.382809574345, 53623.38280957434], "i_angle": [1.248979804773232, -0.845415297619964, -2.9398104000131595]}
      ],
    "source":
      [
        {"id": 4, "i": [1283.885859137976, 1283.8858591379758, 1283.8858591379758], "i_angle": [1.5873924846132124, -0.5070026177799835, -2.601397720173179]},
        {"id": 5, "i": [34874.04389599704, 34874.04389599704, 34874.04389599704], "i_angle": [1.3508432675989517, -0.7435518347942442, -2.8379469371874397]}
      ]
  }
,
  {
    "node":
      [
        {"id": 0, "u_pu": [0.8339083271798211, 0.833908327179821, 0.833908327179821], "u_angle": [0.01659615781831596, -2.07779894457488, 2.1109912602115113], "u": [72218.57957651104, 72218.57957651104, 72218.57957651104]},
        {"id": 1, "u_pu": [5.551115123125783e-17, 5.551115123125782e-17, 5.551115123125782e-17], "u_angle": [0.0, -2.0943951023931957, 2.0943951023931953], "u": [3.204937810639273e-13, 3.2049378106392727e-13, 3.2049378106392727e-13]},
        {"id": 2, "u_pu": [2.4532694666933987e-18, 2.4532694666933987e-18, 2.4532694666933983e-18], "u_angle": [2.356194490192345, 0.261799387799149, -1.8325957145940464], "u": [1.4163957869901235e-14, 1.4163957869901235e-14, 1.4163957869901233e-14]},
        {"id": 3, "u_pu": [3.878959614448864e-18, 3.8789596144488635e-18, 3.8789596144488635e-18], "u_angle": [2.677945044588987, 0.5835499421957911, -1.510845160197404], "u": [2.239518377577739e-14, 2.2395183775777386e-14, 2.2395183775777386e-14]}
      ],
    "transformer":
      [
        {"id": 6, "i_from": [1481.406760543816, 1481.406760543816, 1481.4067605438158], "i_from_angle": [-1.5542001689765805, 2.63459003580981, 0.5401949334166146], "i_to": [19258.287887069615, 19258.287887069615, 19258.287887069615], "i_to_angle": [2.1109912602115113, 0.01659615781831538, -2.07779894457488]}
      ],
    "line":
      [
        {"id": 7, "i_from": [2.0581751991989156e-12, 2.0581751991989156e-12, 2.0581751991989152e-12], "i_from_angle": [-1.2911456859039065, 2.897644518882484, 0.8032494164892887], "i_to": [2.058205477262113e-12, 2.058205477262113e-12, 2.058205477262113e-12], "i_to_angle": [1.8504432520335063, -0.24395185035968955, -2.338346952752885]},
        {"id": 8, "i_from": [1.2468286039364525e-13, 1.2468286039364522e-13, 1.2468286039364525e-13], "i_from_angle": [-1.2608613236530277, 2.927928881133363, 0.8335337787401675], "i_to": [1.246817291599104e-13, 1.2468172915991038e-13, 1.246817291599104e-13], "i_to_angle": [1.8807427150960185, -0.21365238729717742, -2.308047489690373]}
      ],
    "fault":
      [
        {"id": 10, "i": [19258.287887069615, 19258.28788706961, 19258.28788706961], "i_angle": [1.0637937090149137, -1.030601393378282, -3.1249964957714775]}
      ],
    "shunt":
      [
        {"id": 9, "i": [0.0, 0.0, 0.0], "i_angle": [0.0, 0.0, 0.0]}
      ],
    "source":
      [
        {"id": 4, "i": [1283.8858591379758, 1283.8858591379758, 1283.8858591379756], "i_angle": [1.5873924846132126, -0.5070026177799833, -2.6013977201731784]}
      ]
  }
,
  {
    "node":
      [
        {"id": 0, "u_pu": [0.8339083271798211, 0.833908327179821, 0.833908327179821], "u_angle": [0.01659615781831596, -2.07779894457488, 2.1109912602115113], "u": [72218.57957651104, 72218.57957651104, 72218.57957651104]},
        {"id": 1, "u_pu": [5.551115123125783e-17, 5.551115123125782e-17, 5.551115123125782e-17], "u_angle": [0.0, -2.0943951023931957, 2.0943951023931953], "u": [3.204937810639273e-13, 3.2049378106392727e-13, 3.2049378106392727e-13]},
        {"id": 2, "u_pu": [2.4532694666933987e-18, 2.4532694666933987e-18, 2.4532694666933983e-18], "u_angle": [2.356194490192345, 0.261799387799149, -1.8325957145940464], "u": [1.4163957869901235e-14, 1.4163957869901235e-14, 1.4163957869901233e-14]},
        {"id": 3, "u_pu": [3.878959614448864e-18, 3.8789596144488635e-18, 3.8789596144488635e-18], "u_angle": [2.677945044588987, 0.5835499421957911, -1.510845160197404], "u": [2.239518377577739e-14, 2.2395183775777386e-14, 2.2395183775777386e-14]}
      ],
    "transformer":
      [
        {"id": 6, "i_from": [1481.406760543816, 1481.406760543816, 1481.4067605438158], "i_from_angle": [-1.5542001689765805, 2.63459003580981, 0.5401949334166146], "i_to": [19258.287887069615, 19258.287887069615, 19258.287887069615], "i_to_angle": [2.1109912602115113, 0.01659615781831538, -2.07779894457488]}
      ],
    "line":
      [
        {"id": 7, "i_from": [2.0581751991989156e-12, 2.0581751991989156e-12, 2.0581751991989152e-12], "i_from_angle": [-1.2911456859039065, 2.897644518882484, 0.8032494164892887], "i_to": [2.058205477262113e-12, 2.058205477262113e-12, 2.058205477262113e-12], "i_to_angle": [1.8504432520335063, -0.24395185035968955, -2.338346952752885]},
        {"id": 8, "i_from": [1.2468286039364525e-13, 1.2468286039364522e-13, 1.2468286039364525e-13], "i_from_angle": [-1.2608613236530277, 2.927928881133363, 0.8335337787401675], "i_to": [1.246817291599104e-13, 1.2468172915991038e-13, 1.246817291599104e-13], "i_to_angle": [1.8807427150960185, -0.21365238729717742, -2.308047489690373]}
      ],
    "fault":
      [
        {"id": 10, "i": [19258.287887069615, 19258.28788706961, 19258.28788706961], "i_angle": [1.0637937090149137, -1.030601393378282, -3.1249964957714775]}
      ],
    "source":
      [
        {"id": 4, "i": [1283.8858591379758, 1283.8858591379758, 1283.8858591379756], "i_angle": [1.5873924846132126, -0.5070026177799833, -2.6013977201731784]}
      ]
  }
,
  {
    "node":
      [
        {"id": 0, "u_pu": [0.8339083271798211, 0.833908327179821, 0.833908327179821], "u_angle": [0.01659615781831599, -2.07779894457488, 2.1109912602115113], "u": [72218.57957651104, 72218.57957651104, 72218.57957651104]},
        {"id": 1, "u_pu": [0.0, 0.0, 0.0], "u_angle": [0.0, 0.0, 0.0], "u": [0.0, 0.0, 0.0]},
        {"id": 2, "u_pu": [0.9704435987128411, 0.970443598712841, 0.9704435987128409], "u_angle": [-0.5299029914948589, -2.6242980938880547, 1.5644921108983365], "u": [5602.85872950208, 5602.85872950208, 5602.858729502079]},
        {"id": 3, "u_pu": [0.9704473303823548, 0.9704473303823548, 0.9704473303823546], "u_angle": [-0.5299042230039145, -2.6242993253971103, 1.5644908793892809], "u": [5602.880274306062, 5602.880274306062, 5602.880274306061]}
      ],
    "transformer":
      [
        {"id": 6, "i_from": [1481.406760543816, 1481.406760543816, 1481.4067605438158], "i_from_angle": [-1.5542001689765805, 2.63459003580981, 0.5401949334166146], "i_to": [19258.28788706961, 19258.287887069608, 19258.28788706961], "i_to_angle": [2.1109912602115113, 0.01659615781831547, -2.0777989445748797]}
      ],
    "line":
      [
        {"id": 7, "i_from": [34875.11674014596, 34875.11674014595, 34875.11674014595], "i_from_angle": [1.3508334152423649, -0.743561687150831, -2.8379567895440263], "i_to": [34874.58031811108, 34874.58031811108, 34874.58031811108], "i_to_angle": [-1.790754312254378, 2.3980358925320124, 0.3036407901388171]},
        {"id": 8, "i_from": [0.5632618773187452, 0.5632618773187452, 0.5632618773187452], "i_from_angle": [1.0408927195645348, -1.0535023828286612, 3.1352878219577303], "i_to": [1.467690763929347e-11, 1.467690763929347e-11, 1.467690763929347e-11], "i_to_angle": [-1.1071487177940904, 3.0816414869923, 0.9872463845991047]}
      ],
    "fault":
      [
        {"id": 10, "i": [53623.382809574345, 53623.382809574345, 53623.38280957434], "i_angle": [1.248979804773232, -0.845415297619964, -2.9398104000131595]}
      ],
    "shunt":
      [
        {"id": 9, "i": [0.0, 0.0, 0.0], "i_angle": [0.0, 0.0, 0.0]}
      ],
    "source":
      [
        {"id": 4, "i": [1283.885859137976, 1283.8858591379758, 1283.8858591379758], "i_angle": [1.5873924846132124, -0.5070026177799835, -2.601397720173179]},
        {"id": 5, "i": [34874.04389599704, 34874.04389599704, 34874.04389599704], "i_angle": [1.3508432675989517, -0.7435518347942442, -2.8379469371874397]}
      ]
  }
,
  {
    "node":
      [
        {"id": 0, "u_pu": [0.8339083271798211, 0.833908327179821, 0.833908327179821], "u_angle": [0.01659615781831599, -2.07779894457488, 2.1109912602115113], "u": [72218.57957651104, 72218.57957651104, 72218.57957651104]},
        {"id": 1, "u_pu": [0.0, 0.0, 0.0], "u_angle": [0.0, 0.0, 0.0], "u": [0.0, 0.0, 0.0]},
        {"id": 2, "u_pu": [0.9704435987128411, 0.970443598712841, 0.9704435987128409], "u_angle": [-0.5299029914948589, -2.6242980938880547, 1.5644921108983365], "u": [5602.85872950208, 5602.85872950208, 5602.858729502079]},
        {"id": 3, "u_pu": [0.9704473303823548, 0.9704473303823548, 0.9704473303823546], "u_angle": [-0.5299042230039145, -2.6242993253971103, 1.5644908793892809], "u": [5602.880274306062, 5602.880274306062, 5602.880274306061]}
      ],
    "transformer":
      [
        {"id": 6, "i_from": [1481.406760543816, 1481.406760543816, 1481.4067605438158], "i_from_angle": [-1.5542001689765805, 2.63459003580981, 0.5401949334166146], "i_to": [19258.28788706961, 19258.287887069608, 19258.28788706961], "i_to_angle": [2.1109912602115113, 0.01659615781831547, -2.0777989445748797]}
      ],
    "line":
      [
        {"id": 7, "i_from": [34875.11674014596, 34875.11674014595, 34875.11674014595], "i_from_angle": [1.3508334152423649, -0.743561687150831, -2.8379567895440263], "i_to": [34874.58031811108, 34874.58031811108, 34874.58031811108], "i_to_angle": [-1.790754312254378, 2.3980358925320124, 0.3036407901388171]},
        {"id": 8, "i_from": [0.5632618773187452, 0.5632618773187452, 0.5632618773187452], "i_from_angle": [1.0408927195645348, -1.0535023828286612, 3.1352878219577303], "i_to": [1.467690763929347e-11, 1.467690763929347e-11, 1.467690763929347e-11], "i_to_angle": [-1.1071487177940904, 3.0816414869923, 0.9872463845991047]}
      ],
    "fault":
      [
        {"id": 10, "i": [53623.382809574345, 53623.382809574345, 53623.38280957434], "i_angle": [1.248979804773232, -0.845415297619964, -2.9398104000131595]}
      ],
    "source":
      [
        {"id": 4, "i": [1283.885859137976, 1283.8858591379758, 1283.8858591379758], "i_angle": [1.5873924846132124, -0.5070026177799835, -2.601397720173179]},
        {"id": 5, "i": [34874.04389599704, 34874.04389599704, 34874.04389599704], "i_angle": [1.3508432675989517, -0.7435518347942442, -2.8379469371874397]}
      ]
  }
,
  {
    "node":
      [
        {"id": 0, "u_pu": [0.8339083271798211, 0.833908327179821, 0.833908327179821], "u_angle": [0.01659615781831596, -2.07779894457488, 2.1109912602115113], "u": [72218.57957651104, 72218.57957651104, 72218.57957651104]},
        {"id": 1, "u_pu": [5.551115123125783e-17, 5.551115123125782e-17, 5.551115123125782e-17], "u_angle": [0.0, -2.0943951023931957, 2.0943951023931953], "u": [3.204937810639273e-13, 3.2049378106392727e-13, 3.2049378106392727e-13]},
        {"id": 2, "u_pu": [2.4532694666933987e-18, 2.4532694666933987e-18, 2.4532694666933983e-18], "u_angle": [2.356194490192345, 0.261799387799149, -1.8325957145940464], "u": [1.4163957869901235e-14, 1.4163957869901235e-14, 1.4163957869901233e-14]},
        {"id": 3, "u_pu": [3.878959614448864e-18, 3.8789596144488635e-18, 3.8789596144488635e-18], "u_angle": [2.677945044588987, 0.5835499421957911, -1.510845160197404], "u": [2.239518377577739e-14, 2.2395183775777386e-14, 2.2395183775777386e-14]}
      ],
    "transformer":
      [
        {"id": 6, "i_from": [1481.406760543816, 1481.406760543816, 1481.4067605438158], "i_from_angle": [-1.5542001689765805, 2.63459003580981, 0.5401949334166146], "i_to": [19258.287887069615, 19258.287887069615, 19258.287887069615], "i_to_angle": [2.1109912602115113, 0.01659615781831538, -2.07779894457488]}
      ],
    "line":
      [
        {"id": 7, "i_from": [2.0581751991989156e-12, 2.0581751991989156e-12, 2.0581751991989152e-12], "i_from_angle": [-1.2911456859039065, 2.897644518882484, 0.8032494164892887], "i_to": [2.058205477262113e-12, 2.058205477262113e-12, 2.058205477262113e-12], "i_to_angle": [1.8504432520335063, -0.24395185035968955, -2.338346952752885]},
        {"id": 8, "i_from": [1.2468286039364525e-13, 1.2468286039364522e-13, 1.2468286039364525e-13], "i_from_angle": [-1.2608613236530277, 2.927928881133363, 0.8335337787401675], "i_to": [1.246817291599104e-13, 1.2468172915991038e-13, 1.246817291599104e-13], "i_to_angle": [1.8807427150960185, -0.21365238729717742, -2.308047489690373]}
      ],
    "fault":
      [
        {"id": 10, "i": [19258.287887069615, 19258.28788706961, 19258.28788706961], "i_angle": [1.0637937090149137, -1.030601393378282, -3.1249964957714775]}
      ],
    "shunt":
      [
        {"id": 9, "i": [0.0, 0.0, 0.0], "i_angle": [0.0, 0.0, 0.0]}
      ],
    "source":
      [
        {"id": 4, "i": [1283.8858591379758, 1283.8858591379758, 1283.8858591379756], "i_angle": [1.5873924846132126, -0.5070026177799833, -2.6013977201731784]}
      ]
  }
,
  {
    "node":
      [
        {"id": 0, "u_pu": [0.8339083271798211, 0.833908327179821, 0.833908327179821], "u_angle": [0.01659615781831596, -2.07779894457488, 2.1109912602115113], "u": [72218.57957651104, 72218.57957651104, 72218.57957651104]},
        {"id": 1, "u_pu": [5.551115123125783e-17, 5.551115123125782e-17, 5.551115123125782e-17], "u_angle": [0.0, -2.0943951023931957, 2.0943951023931953], "u": [3.204937810639273e-13, 3.2049378106392727e-13, 3.2049378106392727e-13]},
        {"id": 2, "u_pu": [2.4532694666933987e-18, 2.4532694666933987e-18, 2.4532694666933983e-18], "u_angle": [2.356194490192345, 0.261799387799149, -1.8325957145940464], "u": [1.4163957869901235e-14, 1.4163957869901235e-14, 1.4163957869901233e-14]},
        {"id": 3, "u_pu": [3.878959614448864e-18, 3.8789596144488635e-18, 3.8789596144488635e-18], "u_angle": [2.677945044588987, 0.5835499421957911, -1.510845160197404], "u": [2.239518377577739e-14, 2.2395183775777386e-14, 2.2395183775777386e-14]}
      ],
    "transformer":
      [
        {"id": 6, "i_from": [1481.406760543816, 1481.406760543816, 1481.4067605438158], "i_from_angle": [-1.5542001689765805, 2.63459003580981, 0.5401949334166146], "i_to": [19258.287887069615, 19258.287887069615, 19258.287887069615], "i_to_angle": [2.1109912602115113, 0.01659615781831538, -2.07779894457488]}
      ],
    "line":
      [
        {"id": 7, "i_from": [2.0581751991989156e-12, 2.0581751991989156e-12, 2.0581751991989152e-12], "i_from_angle": [-1.2911456859039065, 2.897644518882484, 0.8032494164892887], "i_to": [2.058205477262113e-12, 2.058205477262113e-12, 2.058205477262113e-12], "i_to_angle": [1.8504432520335063, -0.24395185035968955, -2.338346952752885]},
        {"id": 8, "i_from": [1.2468286039364525e-13, 1.2468286039364522e-13, 1.2468286039364525e-13], "i_from_angle": [-1.2608613236530277, 2.927928881133363, 0.8335337787401675], "i_to": [1.246817291599104e-13, 1.2468172915991038e-13, 1.246817291599104e-13], "i_to_angle": [1.8807427150960185, -0.21365238729717742, -2.308047489690373]}
      ],
    "fault":
      [
        {"id": 10, "i": [19258.287887069615, 19258.28788706961, 19258.28788706961], "i_angle": [1.0637937090149137, -1.030601393378282, -3.1249964957714775]}
      ],
    "source":
      [
        {"id": 4, "i": [1283.8858591379758, 1283.8858591379758, 1283.8858591379756], "i_angle": [1.5873924846132126, -0.5070026177799833, -2.6013977201731784]}
      ]
  }
,
  {
    "node":
      [
        {"id": 0, "u_pu": [0.8339083271798211, 0.833908327179821, 0.833908327179821], "u_angle": [0.01659615781831599, -2.07779894457488, 2.1109912602115113], "u": [72218.57957651104, 72218.57957651104, 72218.57957651104]},
        {"id": 1, "u_pu": [0.0, 0.0, 0.0], "u_angle": [0.0, 0.0, 0.0], "u": [0.0, 0.0, 0.0]},
        {"id": 2, "u_pu": [0.9704435987128411, 0.970443598712841, 0.9704435987128409], "u_angle": [-0.5299029914948589, -2.6242980938880547, 1.5644921108983365], "u": [5602.85872950208, 5602.85872950208, 5602.858729502079]},
        {"id": 3, "u_pu": [0.9704473303823548, 0.9704473303823548, 0.9704473303823546], "u_angle": [-0.5299042230039145, -2.6242993253971103, 1.5644908793892809], "u": [5602.880274306062, 5602.880274306062, 5602.880274306061]}
      ],
    "transformer":
      [
        {"id": 6, "i_from": [1481.406760543816, 1481.406760543816, 1481.4067605438158], "i_from_angle": [-1.5542001689765805, 2.63459003580981, 0.5401949334166146], "i_to": [19258.28788706961, 19258.287887069608, 19258.28788706961], "i_to_angle": [2.1109912602115113, 0.01659615781831547, -2.0777989445748797]}
      ],
    "line":
      [
        {"id": 7, "i_from": [34875.11674014596, 34875.11674014595, 34875.11674014595], "i_from_angle": [1.3508334152423649, -0.743561687150831, -2.8379567895440263], "i_to": [34874.58031811108, 34874.58031811108, 34874.58031811108], "i_to_angle": [-1.790754312254378, 2.3980358925320124, 0.3036407901388171]},
        {"id": 8, "i_from": [0.5632618773187452, 0.5632618773187452, 0.5632618773187452], "i_from_angle": [1.0408927195645348, -1.0535023828286612, 3.1352878219577303], "i_to": [1.467690763929347e-11, 1.467690763929347e-11, 1.467690763929347e-11], "i_to_angle": [-1.1071487177940904, 3.0816414869923, 0.9872463845991047]}
      ],
    "fault":
      [
        {"id": 10, "i": [53623.382809574345, 53623.382809574345, 53623.38280957434], "i_angle": [1.248979804773232, -0.845415297619964, -2.9398104000131595]}
      ],
    "shunt":
      [
        {"id": 9, "i": [0.0, 0.0, 0.0], "i_angle": [0.0, 0.0, 0.0]}
      ],
    "source":
      [
        {"id": 4, "i": [1283.885859137976, 1283.8858591379758, 1283.8858591379758], "i_angle": [1.5873924846132124, -0.5070026177799835, -2.601397720173179]},
        {"id": 5, "i": [34874.04389599704, 34874.04389599704, 34874.04389599704], "i_angle": [1.3508432675989517, -0.7435518347942442, -2.8379469371874397]}
      ]
  }
,
  {
    "node":
      [
        {"id": 0, "u_pu": [0.8339083271798211, 0.833908327179821, 0.833908327179821], "u_angle": [0.01659615781831599, -2.07779894457488, 2.1109912602115113], "u": [72218.57957651104, 72218.57957651104, 72218.57957651104]},
        {"id": 1, "u_pu": [0.0, 0.0, 0.0], "u_angle": [0.0, 0.0, 0.0], "u": [0.0, 0.0, 0.0]},
        {"id": 2, "u_pu": [0.9704435987128411, 0.970443598712841, 0.9704435987128409], "u_angle": [-0.5299029914948589, -2.6242980938880547, 1.5644921108983365], "u": [5602.85872950208, 5602.85872950208, 5602.858729502079]},
        {"id": 3, "u_pu": [0.9704473303823548, 0.9704473303823548, 0.9704473303823546], "u_angle": [-0.5299042230039145, -2.6242993253971103, 1.5644908793892809], "u": [5602.880274306062, 5602.880274306062, 5602.880274306061]}
      ],
    "transformer":
      [
        {"id": 6, "i_from": [1481.406760543816, 1481.406760543816, 1481.4067605438158], "i_from_angle": [-1.5542001689765805, 2.63459003580981, 0.5401949334166146], "i_to": [19258.28788706961, 19258.287887069608, 19258.28788706961], "i_to_angle": [2.1109912602115113, 0.01659615781831547, -2.0777989445748797]}
      ],
    "line":
      [
        {"id": 7, "i_from": [34875.11674014596, 34875.11674014595, 34875.11674014595], "i_from_angle": [1.3508334152423649, -0.743561687150831, -2.8379567895440263], "i_to": [34874.58031811108, 34874.58031811108, 34874.58031811108], "i_to_angle": [-1.790754312254378, 2.3980358925320124, 0.3036407901388171]},
        {"id": 8, "i_from": [0.5632618773187452, 0.5632618773187452, 0.5632618773187452], "i_from_angle": [1.0408927195645348, -1.0535023828286612, 3.1352878219577303], "i_to": [1.467690763929347e-11, 1.467690763929347e-11, 1.467690763929347e-11], "i_to_angle": [-1.1071487177940904, 3.0816414869923, 0.9872463845991047]}
      ],
    "fault":
      [
        {"id": 10, "i": [53623.382809574345, 53623.382809574345, 53623.38280957434], "i_angle": [1.248979804773232, -0.845415297619964, -2.9398104000131595]}
      ],
    "source":
      [
        {"id": 4, "i": [1283.885859137976, 1283.8858591379758, 1283.8858591379758], "i_angle": [1.5873924846132124, -0.5070026177799835, -2.601397720173179]},
        {"id": 5, "i": [34874.04389599704, 34874.04389599704, 34874.04389599704], "i_angle": [1.3508432675989517, -0.7435518347942442, -2.8379469371874397]}
      ]
  }
,
  {
    "node":
      [
        {"id": 0, "u_pu": [0.8339083271798211, 0.833908327179821, 0.833908327179821], "u_angle": [0.01659615781831596, -2.07779894457488, 2.1109912602115113], "u": [72218.57957651104, 72218.57957651104, 72218.57957651104]},
        {"id": 1, "u_pu": [5.551115123125783e-17, 5.551115123125782e-17, 5.551115123125782e-17], "u_angle": [0.0, -2.0943951023931957, 2.0943951023931953], "u": [3.204937810639273e-13, 3.2049378106392727e-13, 3.2049378106392727e-13]},
        {"id": 2, "u_pu": [2.4532694666933987e-18, 2.4532694666933987e-18, 2.4532694666933983e-18], "u_angle": [2.356194490192345, 0.261799387799149, -1.8325957145940464], "u": [1.4163957869901235e-14, 1.4163957869901235e-14, 1.4163957869901233e-14]},
        {"id": 3, "u_pu": [3.878959614448864e-18, 3.8789596144488635e-18, 3.8789596144488635e-18], "u_angle": [2.677945044588987, 0.5835499421957911, -1.510845160197404], "u": [2.239518377577739e-14, 2.2395183775777386e-14, 2.2395183775777386e-14]}
      ],
    "transformer":
      [
        {"id": 6, "i_from": [1481.406760543816, 1481.406760543816, 1481.4067605438158], "i_from_angle": [-1.5542001689765805, 2.63459003580981, 0.5401949334166146], "i_to": [19258.287887069615, 19258.287887069615, 19258.287887069615], "i_to_angle": [2.1109912602115113, 0.01659615781831538, -2.07779894457488]}
      ],
    "line":
      [
        {"id": 7, "i_from": [2.0581751991989156e-12, 2.0581751991989156e-12, 2.0581751991989152e-12], "i_from_angle": [-1.2911456859039065, 2.897644518882484, 0.8032494164892887], "i_to": [2.058205477262113e-12, 2.058205477262113e-12, 2.058205477262113e-12], "i_to_angle": [1.8504432520335063, -0.24395185035968955, -2.338346952752885]},
        {"id": 8, "i_from": [1.2468286039364525e-13, 1.2468286039364522e-13, 1.2468286039364525e-13], "i_from_angle": [-1.2608613236530277, 2.927928881133363, 0.8335337787401675], "i_to": [1.246817291599104e-13, 1.2468172915991038e-13, 1.246817291599104e-13], "i_to_angle": [1.8807427150960185, -0.21365238729717742, -2.308047489690373]}
      ],
    "fault":
      [
        {"id": 10, "i": [19258.287887069615, 19258.28788706961, 19258.28788706961], "i_angle": [1.0637937090149137, -1.030601393378282, -3.1249964957714775]}
      ],
    "shunt":
      [
        {"id": 9, "i": [0.0, 0.0, 0.0], "i_angle": [0.0, 0.0, 0.0]}
      ],
    "source":
      [
        {"id": 4, "i": [1283.8858591379758, 1283.8858591379758, 1283.8858591379756], "i_angle": [1.5873924846132126, -0.5070026177799833, -2.6013977201731784]}
      ]
  }
,
  {
    "node":
      [
        {"id": 0, "u_pu": [0.8339083271798211, 0.833908327179821, 0.833908327179821], "u_angle": [0.01659615781831596, -2.07779894457488, 2.1109912602115113], "u": [72218.57957651104, 72218.57957651104, 72218.57957651104]},
        {"id": 1, "u_pu": [5.551115123125783e-17, 5.551115123125782e-17, 5.551115123125782e-17], "u_angle": [0.0, -2.0943951023931957, 2.0943951023931953], "u": [3.204937810639273e-13, 3.2049378106392727e-13, 3.2049378106392727e-13]},
        {"id": 2, "u_pu": [2.4532694666933987e-18, 2.4532694666933987e-18, 2.4532694666933983e-18], "u_angle": [2.356194490192345, 0.261799387799149, -1.8325957145940464], "u": [1.4163957869901235e-14, 1.4163957869901235e-14, 1.4163957869901233e-14]},
        {"id": 3, "u_pu": [3.878959614448864e-18, 3.8789596144488635e-18, 3.8789596144488635e-18], "u_angle": [2.677945044588987, 0.5835499421957911, -1.510845160197404], "u": [2.239518377577739e-14, 2.2395183775777386e-14, 2.2395183775777386e-14]}
      ],
    "transformer":
      [
        {"id": 6, "i_from": [1481.406760543816, 1481.406760543816, 1481.4067605438158], "i_from_angle": [-1.5542001689765805, 2.63459003580981, 0.5401949334166146], "i_to": [19258.287887069615, 19258.287887069615, 19258.287887069615], "i_to_angle": [2.1109912602115113, 0.01659615781831538, -2.07779894457488]}
      ],
    "line":
      [
        {"id": 7, "i_from": [2.0581751991989156e-12, 2.0581751991989156e-12, 2.0581751991989152e-12], "i_from_angle": [-1.2911456859039065, 2.897644518882484, 0.8032494164892887], "i_to": [2.058205477262113e-12, 2.058205477262113e-12, 2.058205477262113e-12], "i_to_angle": [1.8504432520335063, -0.24395185035968955, -2.338346952752885]},
        {"id": 8, "i_from": [1.2468286039364525e-13, 1.2468286039364522e-13, 1.2468286039364525e-13], "i_from_angle": [-1.2608613236530277, 2.927928881133363, 0.8335337787401675], "i_to": [1.246817291599104e-13, 1.2468172915991038e-13, 1.246817291599104e-13], "i_to_angle": [1.8807427150960185, -0.21365238729717742, -2.308047489690373]}
      ],
    "fault":
      [
        {"id": 10, "i": [19258.287887069615, 19258.28788706961, 19258.28788706961], "i_angle": [1.0637937090149137, -1.030601393378282, -3.1249964957714775]}
      ],
    "source":
      [
        {"id": 4, "i": [1283.8858591379758, 1283.8858591379758, 1283.8858591379756], "i_angle": [1.5873924846132126, -0.5070026177799833, -2.6013977201731784]}
      ]
  }
,
  {
    "node":
      [
        {"id": 0, "u_pu": [0.9679395426397449, 0.9679395426397449, 0.9679395426397448], "u_angle": [-0.01348538192785647, -2.1078804843210524, 2.0809097204653386], "u": [83826.023325351, 83826.023325351, 83826.023325351]},
        {"id": 1, "u_pu": [0.8198061923155318, 0.8198061923155316, 0.8198061923155318], "u_angle": [-0.6384960727054502, -2.732891175098646, 1.455899029687745], "u": [4733.1532581669435, 4733.1532581669435, 4733.1532581669435]},
        {"id": 2, "u_pu": [0.9950942554812251, 0.9950942554812251, 0.9950942554812251], "u_angle": [-0.5275334426370187, -2.6219285450302148, 1.5668616597561766], "u": [5745.179362711356, 5745.179362711356, 5745.179362711356]},
...